Version 4
SHEET 1 3320 680
WIRE 256 -16 192 -16
WIRE 496 -16 336 -16
WIRE 1072 -16 976 -16
WIRE 1216 -16 1152 -16
WIRE 2224 -16 2160 -16
WIRE 2464 -16 2304 -16
WIRE 3040 -16 2944 -16
WIRE 3184 -16 3120 -16
WIRE -16 112 -64 112
WIRE 192 112 192 -16
WIRE 192 112 128 112
WIRE 224 112 192 112
WIRE 1952 112 1904 112
WIRE 2160 112 2160 -16
WIRE 2160 112 2096 112
WIRE 2192 112 2160 112
WIRE 496 128 496 -16
WIRE 496 128 288 128
WIRE 640 128 496 128
WIRE 912 128 720 128
WIRE 976 128 976 -16
WIRE 976 128 912 128
WIRE 1040 128 976 128
WIRE 2464 128 2464 -16
WIRE 2464 128 2256 128
WIRE 2608 128 2464 128
WIRE 2944 128 2944 -16
WIRE 2944 128 2688 128
WIRE 3008 128 2944 128
WIRE 224 144 192 144
WIRE 1216 144 1216 -16
WIRE 1216 144 1104 144
WIRE 1328 144 1216 144
WIRE 2192 144 2160 144
WIRE 3184 144 3184 -16
WIRE 3184 144 3072 144
WIRE 3296 144 3184 144
WIRE 1040 160 1008 160
WIRE 3008 160 2976 160
WIRE 704 176 512 176
WIRE 2672 176 2480 176
WIRE 192 192 192 144
WIRE 2160 192 2160 144
WIRE 1008 208 1008 160
WIRE 2976 208 2976 160
WIRE -64 240 -64 112
WIRE 1904 240 1904 112
WIRE 512 288 512 176
WIRE 592 288 512 288
WIRE 2480 288 2480 176
WIRE 2560 288 2480 288
WIRE 704 304 704 176
WIRE 704 304 656 304
WIRE 768 304 704 304
WIRE 912 304 912 128
WIRE 912 304 848 304
WIRE 2672 304 2672 176
WIRE 2672 304 2624 304
WIRE 2736 304 2672 304
WIRE 2880 304 2816 304
WIRE 592 320 512 320
WIRE 2560 320 2480 320
WIRE 512 416 512 320
WIRE 2480 416 2480 320
FLAG -64 320 0
FLAG 192 192 0
FLAG 1008 208 0
FLAG 1328 208 0
FLAG 1072 32 0
FLAG 624 192 0
FLAG 256 16 0
FLAG 256 240 0
FLAG 624 416 0
FLAG 1072 256 0
FLAG 512 576 0
FLAG 1904 320 0
FLAG 2160 192 0
FLAG 2976 208 0
FLAG 3296 208 0
FLAG 3040 32 0
FLAG 2592 192 0
FLAG 2224 16 0
FLAG 2224 240 0
FLAG 2592 416 0
FLAG 3040 256 0
FLAG 2480 576 0
SYMBOL voltage -64 224 R0
WINDOW 123 0 0 Left 0
WINDOW 39 0 0 Left 0
SYMATTR InstName V1
SYMATTR Value SINE(0 150m 80)
SYMBOL cap 48 96 R90
WINDOW 0 0 32 VBottom 2
WINDOW 3 32 32 VTop 2
SYMATTR InstName C1
SYMATTR Value 1µ
SYMBOL res 144 96 R90
WINDOW 0 0 56 VBottom 2
WINDOW 3 32 56 VTop 2
SYMATTR InstName R1
SYMATTR Value 100k
SYMBOL OpAmps\\AD744 256 64 R0
SYMATTR InstName U1
SYMBOL res 352 -32 R90
WINDOW 0 0 56 VBottom 2
WINDOW 3 -26 -13 VTop 2
SYMATTR InstName R2
SYMATTR Value 250k
SYMBOL res 736 112 R90
WINDOW 0 0 56 VBottom 2
WINDOW 3 32 56 VTop 2
SYMATTR InstName R3
SYMATTR Value 1k
SYMBOL OpAmps\\AD744 624 240 R0
SYMATTR InstName U2
SYMBOL res 864 288 R90
WINDOW 0 0 56 VBottom 2
WINDOW 3 32 56 VTop 2
SYMATTR InstName R5
SYMATTR Value 3k
SYMBOL OpAmps\\AD744 1072 80 R0
SYMATTR InstName U3
SYMBOL res 1168 -32 R90
WINDOW 0 0 56 VBottom 2
WINDOW 3 32 56 VTop 2
SYMATTR InstName R6
SYMATTR Value 1k
SYMBOL zener 1344 208 R180
WINDOW 0 24 64 Left 2
WINDOW 3 24 0 Left 2
SYMATTR InstName D1
SYMATTR Value UMZ5_1N
SYMBOL voltage 256 256 R180
WINDOW 0 24 96 Left 2
WINDOW 3 24 16 Left 2
SYMATTR InstName V2
SYMATTR Value 9
SYMBOL voltage 624 432 R180
WINDOW 0 24 96 Left 2
WINDOW 3 24 16 Left 2
SYMATTR InstName V3
SYMATTR Value 9
SYMBOL voltage 1072 272 R180
WINDOW 0 24 96 Left 2
WINDOW 3 24 16 Left 2
SYMATTR InstName V4
SYMATTR Value 9
SYMBOL voltage 624 288 R180
WINDOW 0 24 96 Left 2
WINDOW 3 24 16 Left 2
SYMATTR InstName V5
SYMATTR Value 9
SYMBOL voltage 1072 128 R180
WINDOW 0 24 96 Left 2
WINDOW 3 24 16 Left 2
SYMATTR InstName V6
SYMATTR Value 9
SYMBOL voltage 256 112 R180
WINDOW 0 24 96 Left 2
WINDOW 3 24 16 Left 2
SYMATTR InstName V7
SYMATTR Value 9
SYMBOL res 496 400 R0
SYMATTR InstName R4
SYMATTR Value 1k
SYMBOL voltage 512 480 R0
SYMATTR InstName V8
SYMATTR Value -9
SYMBOL voltage 1904 224 R0
WINDOW 123 0 0 Left 0
WINDOW 39 0 0 Left 0
SYMATTR InstName V9
SYMATTR Value SINE(2.5 2.5 80)
SYMBOL cap 2016 96 R90
WINDOW 0 0 32 VBottom 2
WINDOW 3 32 32 VTop 2
SYMATTR InstName C2
SYMATTR Value 1µ
SYMBOL res 2112 96 R90
WINDOW 0 0 56 VBottom 2
WINDOW 3 32 56 VTop 2
SYMATTR InstName R7
SYMATTR Value 250k
SYMBOL OpAmps\\AD744 2224 64 R0
SYMATTR InstName U4
SYMBOL res 2320 -32 R90
WINDOW 0 0 56 VBottom 2
WINDOW 3 -26 -13 VTop 2
SYMATTR InstName R8
SYMATTR Value 100k
SYMBOL res 2704 112 R90
WINDOW 0 0 56 VBottom 2
WINDOW 3 32 56 VTop 2
SYMATTR InstName R9
SYMATTR Value 1k
SYMBOL OpAmps\\AD744 2592 240 R0
SYMATTR InstName U5
SYMBOL res 2832 288 R90
WINDOW 0 0 56 VBottom 2
WINDOW 3 32 56 VTop 2
SYMATTR InstName R10
SYMATTR Value 3k
SYMBOL OpAmps\\AD744 3040 80 R0
SYMATTR InstName U6
SYMBOL res 3136 -32 R90
WINDOW 0 0 56 VBottom 2
WINDOW 3 32 56 VTop 2
SYMATTR InstName R11
SYMATTR Value 750
SYMBOL zener 3312 208 R180
WINDOW 0 24 64 Left 2
WINDOW 3 24 0 Left 2
SYMATTR InstName D2
SYMATTR Value UMZ5_1N
SYMBOL voltage 2224 256 R180
WINDOW 0 24 96 Left 2
WINDOW 3 24 16 Left 2
SYMATTR InstName V10
SYMATTR Value 9
SYMBOL voltage 2592 432 R180
WINDOW 0 24 96 Left 2
WINDOW 3 24 16 Left 2
SYMATTR InstName V11
SYMATTR Value 9
SYMBOL voltage 3040 272 R180
WINDOW 0 24 96 Left 2
WINDOW 3 24 16 Left 2
SYMATTR InstName V12
SYMATTR Value 9
SYMBOL voltage 2592 288 R180
WINDOW 0 24 96 Left 2
WINDOW 3 24 16 Left 2
SYMATTR InstName V13
SYMATTR Value 9
SYMBOL voltage 3040 128 R180
WINDOW 0 24 96 Left 2
WINDOW 3 24 16 Left 2
SYMATTR InstName V14
SYMATTR Value 9
SYMBOL voltage 2224 112 R180
WINDOW 0 24 96 Left 2
WINDOW 3 24 16 Left 2
SYMATTR InstName V15
SYMATTR Value 9
SYMBOL res 2464 400 R0
SYMATTR InstName R12
SYMATTR Value 1k
SYMBOL voltage 2480 480 R0
SYMATTR InstName V16
SYMATTR Value 9
TEXT -96 600 Left 2 !.tran .2
